# File generated by Flopy version 3.9.5 on 01/22/2026 at 15:31:49.
BEGIN options
END options

BEGIN griddata
  icelltype
    CONSTANT  0
  k
    INTERNAL  FACTOR  1.0
         1.33230251       1.23055478       0.96533964       0.72363463       0.59673350       0.59603502       0.72852595       1.01274969       1.42567613       1.83201502       2.04635393       2.02144979       1.87628042       1.73901544       1.64580186       1.54886195       1.38023670       1.13632357       0.89278744       0.72425940       0.65137811       0.65139269       0.66664825       0.61893492       0.48532602       0.33407826       0.23051394       0.18311436       0.17583868       0.19073319       0.20762087       0.21316777       0.21735083       0.24784734       0.33844794       0.51420082       0.71402571       0.74760455       0.56370981       0.35392041       0.23600337       0.19998547       0.21686075       0.26131617       0.29792594       0.30342144       0.29486726       0.30277572       0.33877852       0.38627317       0.41068922       0.40475994       0.41115845       0.49249129       0.71971490       1.13200983       1.55097850       1.60451546       1.29999052       0.99641812       0.87811472       0.93994362       1.09271800       1.16783254
END griddata

