# File generated by Flopy version 3.9.5 on 01/22/2026 at 15:32:24.
BEGIN options
END options

BEGIN griddata
  icelltype
    CONSTANT  0
  k
    INTERNAL  FACTOR  1.0
         0.81173312       0.76331310       0.67143737       0.57967063       0.50009014       0.41709769       0.32455067       0.24504900       0.20610136       0.22697713       0.34630926       0.64598795       1.14487256       1.54738988       1.53110544       1.29487145       1.16684726       1.25185788       1.47800647       1.58790004       1.36182252       0.97966381       0.72308390       0.66671671       0.79370031       1.03317819       1.14663286       0.93129170       0.58321237       0.35161667       0.26128080       0.27082042       0.36998283       0.55536223       0.75553982       0.83908181       0.77467325       0.66432262       0.60670331       0.64669675       0.80327202       1.05286288       1.25594337       1.22184315       0.97678860       0.73768191       0.64042297       0.72469271       1.02618486       1.49224826       1.75787929       1.47380372       0.92627637       0.52445962       0.32229279       0.23294298       0.19095212       0.16490276       0.14676044       0.14136513       0.15619878       0.19575571       0.25243547       0.29778535
END griddata

