# File generated by Flopy version 3.9.5 on 01/22/2026 at 15:32:20.
BEGIN options
END options

BEGIN griddata
  icelltype
    CONSTANT  0
  k
    INTERNAL  FACTOR  1.0
         0.50999050       0.43784213       0.33062003       0.26017583       0.24608785       0.28199002       0.34528704       0.38778181       0.37720637       0.34358330       0.33731009       0.38702761       0.49427785       0.61097814       0.65051582       0.59706891       0.53035215       0.52156675       0.59333754       0.72044980       0.81475399       0.79281693       0.69262336       0.61765541       0.62636614       0.72056867       0.83868736       0.86015159       0.73647599       0.56710995       0.45663829       0.43388584       0.49198373       0.60472913       0.70879865       0.73563993       0.68592498       0.61587809       0.56548952       0.53728756       0.51645914       0.49701954       0.49529796       0.54426784       0.68594019       0.96115791       1.35375458       1.70534129       1.80760084       1.66750900       1.48979293       1.44167074       1.58494610       1.89780489       2.23827862       2.36788714       2.18006418       1.83159907       1.54056381       1.40833983       1.43722820       1.57478962       1.71404316       1.72751356
END griddata

