# File generated by Flopy version 3.9.5 on 01/22/2026 at 15:32:28.
BEGIN options
END options

BEGIN griddata
  icelltype
    CONSTANT  0
  k
    INTERNAL  FACTOR  1.0
         0.96102274       0.91529145       0.81345961       0.71957556       0.68720161       0.75026133       0.93493059       1.24454251       1.60447409       1.86016302       1.92373374       1.87664567       1.86079276       1.95280511       2.14195274       2.36633006       2.59566988       2.90745534       3.46373010       4.38617425       5.51531023       6.22015401       5.91478036       4.89546826       3.93636460       3.43159262       3.33982535       3.39238212       3.24871296       2.80378457       2.30477817       2.02742830       2.08237458       2.47123722       3.06087402       3.50554337       3.48539946       3.07332420       2.58568489       2.23316596       2.07629071       2.14283761       2.52071414       3.40670249       5.05397577       7.35605150       9.17154762       9.09168092       7.51939617       6.02511856       5.42164356       5.67058694       6.18231729       5.92741543       4.54066255       2.95283822       1.95246103       1.56034558       1.58102686       1.84696275       2.13997570       2.24228396       2.15058486       2.01938556
END griddata

