# File generated by Flopy version 3.9.5 on 01/22/2026 at 15:32:15.
BEGIN options
  SAVE_FLOWS
END options

BEGIN packages
  DIS6  gwf_398.dis  dis
  IC6  gwf_398.ic  ic
  NPF6  gwf_398.npf  npf
  CHD6  gwf_398.chd  chd_0
  WEL6  gwf_398.wel  wel_0
  OC6  gwf_398.oc  oc
END packages

