# File generated by Flopy version 3.9.5 on 01/22/2026 at 15:32:18.
BEGIN options
END options

BEGIN griddata
  icelltype
    CONSTANT  0
  k
    INTERNAL  FACTOR  1.0
         1.01711579       0.97701451       0.85082515       0.66204943       0.47699529       0.35257469       0.30261713       0.32135903       0.40206768       0.51769095       0.60110464       0.60268582       0.55501205       0.52225228       0.53789701       0.60259999       0.69838060       0.81028227       0.95444908       1.17789076       1.51092911       1.87481464       2.04292529       1.86556966       1.50051884       1.20069539       1.07229646       1.10960634       1.26792241       1.47801737       1.68085596       1.88514377       2.15131297       2.50060923       2.83426022       2.97606826       2.87733857       2.70629359       2.67096897       2.85473987       3.15692581       3.29005622       3.00660305       2.41428728       1.83000727       1.42756520       1.19670020       1.06039039       0.94932786       0.83478562       0.72852360       0.65397614       0.62499499       0.64892859       0.74173318       0.94644996       1.35321473       2.09941281       3.26129908       4.57281638       5.37963690       5.31990839       4.75431902       4.19191995
END griddata

