# File generated by Flopy version 3.9.5 on 01/22/2026 at 15:32:20.
BEGIN options
  SAVE_FLOWS
END options

BEGIN packages
  DIS6  gwf_452.dis  dis
  IC6  gwf_452.ic  ic
  NPF6  gwf_452.npf  npf
  CHD6  gwf_452.chd  chd_0
  WEL6  gwf_452.wel  wel_0
  OC6  gwf_452.oc  oc
END packages

