# File generated by Flopy version 3.9.5 on 01/22/2026 at 15:32:28.
BEGIN options
END options

BEGIN griddata
  icelltype
    CONSTANT  0
  k
    INTERNAL  FACTOR  1.0
         1.11776050       1.19537304       1.40283560       1.68829197       1.92455512       1.97979963       1.85564087       1.68659685       1.60728741       1.68203864       1.90594639       2.19106174       2.37007906       2.31225672       2.04680569       1.70084102       1.36283987       1.05491493       0.78299234       0.56683054       0.42418609       0.35385921       0.34250333       0.37126936       0.40797365       0.41110542       0.36969780       0.31935051       0.30184799       0.34448032       0.47272759       0.69951401       0.96362459       1.12074196       1.09862355       0.97766336       0.86250784       0.79270310       0.76262042       0.76186360       0.79800272       0.89554344       1.07113607       1.27893028       1.36186512       1.17509434       0.81824926       0.51622782       0.35559048       0.31206317       0.35916049       0.48133834       0.61380498       0.62722604       0.48963666       0.32208678       0.21530233       0.17504523       0.18950906       0.26591877       0.42998038       0.68872490       0.95889830       1.07379536
END griddata

