# File generated by Flopy version 3.9.5 on 01/22/2026 at 15:32:27.
BEGIN options
END options

BEGIN griddata
  icelltype
    CONSTANT  0
  k
    INTERNAL  FACTOR  1.0
         0.72265452       0.71328837       0.72475157       0.75973855       0.81192730       0.85984906       0.87702015       0.85950582       0.84054132       0.87330376       1.01056045       1.29288337       1.70633025       2.10854615       2.27692353       2.14377992       1.86801935       1.62886951       1.49216095       1.43972987       1.43460991       1.47170166       1.60010266       1.91145590       2.50191108       3.36046078       4.18049009       4.46016198       4.08303284       3.45849935       2.97201187       2.69682459       2.49800141       2.21949862       1.86439262       1.59256596       1.56307473       1.90454281       2.75542902       4.03316315       4.98403919       4.78125996       3.80757767       2.97577523       2.65307321       2.80002913       3.21600338       3.54202222       3.48138674       3.12481413       2.77109448       2.57690876       2.50786471       2.45086698       2.35009789       2.27151128       2.32409602       2.53605334       2.75352450       2.66373876       2.15443245       1.53478822       1.12369923       0.99245490
END griddata

