# File generated by Flopy version 3.9.5 on 01/22/2026 at 15:32:26.
BEGIN options
END options

BEGIN dimensions
  NLAY  1
  NROW  1
  NCOL  64
END dimensions

BEGIN griddata
  delr
    CONSTANT      10.00000000
  delc
    CONSTANT       1.00000000
  top
    CONSTANT       0.00000000
  botm
    CONSTANT      -1.00000000
END griddata

