# File generated by Flopy version 3.9.5 on 01/22/2026 at 15:32:26.
BEGIN options
END options

BEGIN griddata
  icelltype
    CONSTANT  0
  k
    INTERNAL  FACTOR  1.0
         0.60042391       0.58505375       0.58167794       0.57789824       0.56695843       0.55975313       0.58625377       0.69130035       0.93510793       1.36838547       1.90930562       2.23223546       2.08687489       1.69272780       1.41733230       1.43940495       1.85252883       2.72458464       3.81824070       4.42450530       4.15141645       3.44357879       2.82146509       2.40257322       2.08079049       1.77209695       1.51942258       1.43198400       1.61256247       2.15672802       3.04781337       3.89113525       4.12477968       3.81295709       3.53758473       3.71388651       4.45183706       5.52815764       6.35821328       6.57840410       6.58447768       7.05636535       8.34978200      10.09687030      10.96703025       9.88030304       7.59200392       5.51995257       4.15530675       3.26900898       2.53499695       1.84341413       1.29045978       0.95965580       0.83649182       0.87301128       1.01620319       1.18676109       1.30489700       1.36457706       1.42430866       1.52047518       1.61398587       1.61769542
END griddata

