# File generated by Flopy version 3.9.5 on 01/22/2026 at 15:32:18.
BEGIN options
END options

BEGIN griddata
  icelltype
    CONSTANT  0
  k
    INTERNAL  FACTOR  1.0
         2.24086297       2.04304072       1.48607172       1.07880657       0.97081375       1.16325751       1.67122398       2.36163257       2.77601328       2.55427408       1.91817445       1.29004598       0.85923754       0.62382883       0.53886251       0.58452257       0.77925768       1.13948528       1.55599172       1.76669011       1.67116274       1.47289567       1.38023428       1.44683127       1.59867435       1.68059265       1.60994621       1.49237156       1.48640185       1.65319596       1.87922712       1.85635851       1.43764448       0.92542414       0.60421936       0.49015194       0.52422573       0.65304987       0.77068652       0.75691845       0.64335394       0.55638641       0.56575222       0.68309263       0.86185333       0.96915289       0.90877201       0.76153968       0.65736604       0.64965918       0.73637119       0.87942368       1.00265783       1.03818147       0.98447876       0.88456664       0.77373220       0.66980292       0.58691768       0.53912574       0.53414755       0.56763904       0.61893721       0.65633087
END griddata

