# File generated by Flopy version 3.9.5 on 01/22/2026 at 15:32:27.
BEGIN options
END options

BEGIN griddata
  icelltype
    CONSTANT  0
  k
    INTERNAL  FACTOR  1.0
         1.97249858       1.84596303       1.39426448       0.93085603       0.63022045       0.49693204       0.49649330       0.62149365       0.87467817       1.18442047       1.36599264       1.31582373       1.16297977       1.09290876       1.20953199       1.54917905       2.00535798       2.20707002       1.86506840       1.24983078       0.76606485       0.50453191       0.38885986       0.34306789       0.31852243       0.29128371       0.26274443       0.24695686       0.25453830       0.28806783       0.34255838       0.40971683       0.49107020       0.60779045       0.78925813       1.03208537       1.24249396       1.27441291       1.11336851       0.90485133       0.77053641       0.73518721       0.76648692       0.80466605       0.80195766       0.77241105       0.77568085       0.86346991       1.05218000       1.30186151       1.53350448       1.74265808       2.07622871       2.77444677       3.99643513       5.31024671       5.47391977       4.15085858       2.63825097       1.78901163       1.56128730       1.75649146       2.13028419       2.24290462
END griddata

