# File generated by Flopy version 3.9.5 on 01/22/2026 at 15:32:16.
BEGIN options
END options

BEGIN griddata
  icelltype
    CONSTANT  0
  k
    INTERNAL  FACTOR  1.0
         3.26865193       3.03683383       2.16454604       1.43159607       1.07375140       1.00314053       1.10662465       1.24822232       1.26820736       1.12911397       0.94987302       0.84329185       0.84141011       0.92318539       1.03028706       1.08932012       1.07040134       1.00662127       0.94325777       0.89930257       0.87783910       0.89564894       1.00296078       1.29259378       1.89600084       2.85757692       3.78260920       3.92038648       3.23868640       2.50032882       2.21292558       2.50296343       3.37349505       4.41731024       4.64443722       3.80280438       2.85562333       2.52358392       3.07896473       4.95523843       8.41501726      11.71716835      11.85305064       9.34239842       6.91810468       5.66496271       5.32559386       5.28884139       4.95439500       4.17336220       3.30739654       2.69436377       2.38873615       2.28013786       2.22142891       2.12115301       1.99930474       1.94120533       2.01269916       2.22097291       2.50381231       2.74236863       2.82320781       2.70392622
END griddata

