# File generated by Flopy version 3.9.5 on 01/22/2026 at 15:32:28.
BEGIN options
END options

BEGIN griddata
  icelltype
    CONSTANT  0
  k
    INTERNAL  FACTOR  1.0
         1.44988445       1.50566037       1.54477185       1.46108722       1.19620524       0.84208437       0.54744660       0.37324594       0.30253497       0.30967332       0.38498925       0.51409855       0.63666337       0.66345608       0.58148427       0.46897974       0.39439352       0.37845393       0.42079240       0.51779033       0.66742225       0.88595010       1.23897286       1.85573819       2.84936323       4.00462405       4.54115821       3.94879224       2.84176953       2.00741800       1.63593207       1.61806300       1.78626439       1.90357177       1.78221490       1.49391523       1.23340525       1.07701878       0.96744185       0.80384496       0.56887160       0.35562094       0.22931711       0.18042679       0.18283343       0.21640849       0.25528384       0.27919027       0.30960686       0.41618889       0.74523684       1.57454838       2.89356005       3.43063516       2.41692258       1.23609690       0.64878882       0.45041732       0.41497552       0.41307216       0.35860556       0.26339486       0.19619214       0.18796431
END griddata

