# File generated by Flopy version 3.9.5 on 01/22/2026 at 15:32:15.
BEGIN options
END options

BEGIN griddata
  icelltype
    CONSTANT  0
  k
    INTERNAL  FACTOR  1.0
         7.45305592       7.85963222       7.04819628       6.09189676       5.63971429       5.64840715       5.68505290       5.35819390       4.80679227       4.56962612       5.16202387       7.05357235      10.40359673      13.86834995      14.81920513      12.92862477      10.54688716       9.35082481       9.60404980      10.90983513      12.47671926      13.59454658      14.37782201      15.52685969      17.29342472      18.67829089      17.90752615      14.76992417      11.27589844       9.16117696       8.80121644       9.87284757      11.37881183      11.57084299       9.70405327       7.12547375       5.22461537       4.21996833       3.74476716       3.37165504       2.88637596       2.41527682       2.21467763       2.48532562       3.42625020       5.08156114       6.66976797       6.79064555       5.45318293       4.00095452       3.18557912       2.99775818       3.20532002       3.49103449       3.56120086       3.39800566       3.22131345       3.18937775       3.24579585       3.16157584       2.77532013       2.22706263       1.79015578       1.60080566
END griddata

