# File generated by Flopy version 3.9.5 on 01/22/2026 at 15:32:22.
BEGIN options
END options

BEGIN griddata
  icelltype
    CONSTANT  0
  k
    INTERNAL  FACTOR  1.0
         1.97630427       1.99802775       1.91720329       1.88074178       1.96300200       2.08605544       2.04235291       1.71894516       1.28431459       0.96171038       0.81120883       0.77944897       0.76009923       0.64422702       0.44666007       0.28259895       0.20506187       0.20797092       0.30158058       0.51995705       0.80195016       0.89719845       0.72023667       0.49742889       0.37948642       0.37797495       0.49386382       0.74600956       1.11551628       1.50792512       1.84024148       2.12026443       2.37142747       2.52881952       2.46794130       2.17000352       1.78691798       1.48863553       1.34053480       1.31788403       1.34060387       1.30205488       1.14607362       0.92479875       0.73168605       0.61338573       0.56484035       0.55498366       0.54059566       0.48849466       0.40510754       0.32675612       0.28189048       0.28026939       0.32377948       0.40752072       0.50573413       0.57117580       0.57421579       0.53269887       0.48525244       0.45633753       0.45180444       0.46950714
END griddata

