# File generated by Flopy version 3.9.5 on 01/22/2026 at 15:32:24.
BEGIN options
END options

BEGIN griddata
  icelltype
    CONSTANT  0
  k
    INTERNAL  FACTOR  1.0
         1.41906966       1.68924927       2.48182385       3.67391433       4.60489460       4.75024015       4.44269481       4.12907788       3.71319893       2.83807705       1.67810836       0.83129208       0.44586421       0.34121615       0.40924229       0.64932745       0.99259265       1.15668583       1.04385413       0.92456572       1.03818490       1.56873435       2.62399855       3.57485823       3.29104466       2.20474438       1.42347654       1.18109805       1.39667101       2.07371119       3.03600256       3.64086252       3.45334305       2.80096293       2.10163992       1.45955295       0.88698467       0.46288701       0.22782312       0.12772841       0.09755882       0.10722011       0.15232947       0.22849303       0.30317408       0.33469922       0.32605731       0.31197374       0.31377651       0.32744691       0.33061969       0.30273030       0.24931230       0.19543999       0.15938219       0.14564888       0.15352759       0.18316700       0.23573713       0.31026577       0.40002697       0.49134553       0.56645518       0.60967313
END griddata

