# File generated by Flopy version 3.9.5 on 01/22/2026 at 15:32:27.
BEGIN options
END options

BEGIN griddata
  icelltype
    CONSTANT  0
  k
    INTERNAL  FACTOR  1.0
         3.08662508       3.13231518       2.89029340       2.73482544       2.84415535       3.07137977       3.00225105       2.43631692       1.74952386       1.34180434       1.31087089       1.68380057       2.49731009       3.56745550       4.46897427       5.11612197       5.89948403       7.04168858       7.91336848       7.25901346       5.14528064       3.13548445       2.02161897       1.61569013       1.59137041       1.65632909       1.53732518       1.21133833       0.89648724       0.72898889       0.70574312       0.76998427       0.82885414       0.79937268       0.69849204       0.60587606       0.56422148       0.55935336       0.53963899       0.45929405       0.33455491       0.22155482       0.14990792       0.11674421       0.11392638       0.14439721       0.23196727       0.42855593       0.77472731       1.15430507       1.28975638       1.13026164       0.91242914       0.80160542       0.80577309       0.83681253       0.76183627       0.56358225       0.37443138       0.27827909       0.27546433       0.35849799       0.50201898       0.59640791
END griddata

