# File generated by Flopy version 3.9.5 on 01/22/2026 at 15:32:28.
BEGIN options
END options

BEGIN griddata
  icelltype
    CONSTANT  0
  k
    INTERNAL  FACTOR  1.0
         0.55523141       0.54684003       0.59106890       0.73426355       1.02644250       1.42195633       1.64054269       1.43058259       1.01046558       0.71315621       0.62651885       0.74845114       1.11063587       1.68463432       2.20537110       2.34860645       2.11283888       1.70252208       1.25597960       0.84541969       0.53448034       0.34910398       0.26722960       0.25834585       0.30540690       0.39349268       0.49485361       0.58954877       0.69778880       0.85996866       1.06677924       1.18322782       1.04413832       0.72821115       0.46207765       0.33064001       0.31095690       0.38219619       0.52672075       0.67071073       0.70478408       0.62191539       0.51141058       0.43332744       0.39092622       0.36291169       0.32902808       0.28485609       0.24011863       0.20508625       0.18330028       0.17362275       0.17381551       0.18180655       0.19490442       0.20888505       0.21976599       0.22860842       0.24440022       0.28190491       0.35702079       0.47551082       0.60732287       0.68004831
END griddata

