# File generated by Flopy version 3.9.5 on 01/22/2026 at 15:32:28.
BEGIN options
END options

BEGIN griddata
  icelltype
    CONSTANT  0
  k
    INTERNAL  FACTOR  1.0
         0.94939746       0.80996523       0.55257580       0.37603058       0.31636357       0.35415059       0.47966041       0.65870178       0.80301436       0.85369424       0.85427146       0.88238217       0.97922468       1.13680975       1.29870415       1.38536451       1.35608162       1.24780875       1.14667886       1.14025924       1.30831533       1.73181229       2.40878785       3.00438715       2.93358972       2.20320738       1.44531823       1.00609376       0.84409028       0.82934241       0.82024745       0.71083934       0.54032654       0.41821501       0.39188626       0.46349944       0.60147222       0.68987198       0.62428243       0.48696903       0.40811057       0.43332008       0.56140780       0.71269906       0.70729037       0.52319644       0.34198633       0.25398979       0.24621861       0.29310077       0.36000636       0.40711176       0.44332388       0.53417840       0.76239901       1.15505912       1.48016307       1.36700119       0.96149898       0.65837532       0.56304293       0.63805433       0.81168960       0.91469121
END griddata

