# File generated by Flopy version 3.9.5 on 01/22/2026 at 15:32:26.
BEGIN options
END options

BEGIN griddata
  icelltype
    CONSTANT  0
  k
    INTERNAL  FACTOR  1.0
         1.26743904       1.29017200       1.32383765       1.39817539       1.53785397       1.74679782       2.01067058       2.32520513       2.73372896       3.33275258       4.22215748       5.39277962       6.59341531       7.37021882       7.38285243       6.63998091       5.38460329       3.92439862       2.58470010       1.60820711       1.03853184       0.77793196       0.72096226       0.79988878       0.93791736       1.00111971       0.89182403       0.67965833       0.49786536       0.40207094       0.38982184       0.45442897       0.59601782       0.79908492       0.99870589       1.08674538       1.00124608       0.80526158       0.62143031       0.52398500       0.53373906       0.65945937       0.88518317       1.09185443       1.09643660       0.90105250       0.68898112       0.57769594       0.58196945       0.68133507       0.82326384       0.91933035       0.92159276       0.87476966       0.84800107       0.87031476       0.93130957       1.01162402       1.12182626       1.31894903       1.68060700       2.22218242       2.73846442       2.81812127
END griddata

