# File generated by Flopy version 3.9.5 on 01/22/2026 at 15:32:21.
BEGIN options
END options

BEGIN griddata
  icelltype
    CONSTANT  0
  k
    INTERNAL  FACTOR  1.0
         2.74621153       3.07517486       3.55584247       3.90373908       3.76120764       3.12152349       2.36190619       1.80044779       1.50605663       1.41788690       1.43846807       1.44674206       1.33545975       1.09605527       0.82417848       0.61662735       0.50991377       0.50793437       0.62546895       0.89906615       1.32565782       1.72324727       1.78032555       1.45875845       1.05072795       0.77500246       0.65807808       0.65443004       0.69951135       0.70700464       0.62037173       0.47812813       0.35705881       0.29092101       0.27541820       0.29423791       0.32198488       0.32719358       0.29797684       0.25550043       0.22914226       0.23822930       0.30172563       0.45600956       0.76571984       1.31310607       2.15375828       3.25861140       4.47857602       5.54567815       6.14959428       6.12946584       5.63059467       4.99927103       4.52135730       4.27713099       4.12926225       3.77739985       2.99871059       1.97415678       1.12439241       0.63326877       0.42105280       0.38081994
END griddata

