# File generated by Flopy version 3.9.5 on 01/22/2026 at 15:32:28.
BEGIN options
END options

BEGIN griddata
  icelltype
    CONSTANT  0
  k
    INTERNAL  FACTOR  1.0
         0.36956234       0.31544738       0.24169282       0.18888791       0.16968522       0.18084741       0.21333569       0.24876603       0.26571146       0.26143860       0.25436422       0.26487661       0.30566276       0.38090616       0.47963779       0.56748784       0.59925745       0.55596390       0.46440679       0.37086138       0.30564086       0.27620682       0.27771856       0.29972394       0.32852698       0.35562187       0.38862512       0.44855526       0.55128169       0.67244279       0.71847765       0.61224311       0.42650994       0.28465781       0.22462326       0.23927574       0.33424860       0.51929885       0.74717336       0.91836007       1.01934612       1.15045827       1.41024078       1.78802965       2.07427365       2.01427804       1.68277610       1.38029766       1.27760361       1.38984289       1.62892543       1.77950535       1.65836764       1.37068527       1.15938022       1.16555012       1.47275955       2.17467718       3.21614176       4.12357850       4.31874184       3.85659887       3.26047543       2.87919752
END griddata

