# File generated by Flopy version 3.9.5 on 01/22/2026 at 15:32:19.
BEGIN options
  SAVE_FLOWS
END options

BEGIN packages
  DIS6  gwf_443.dis  dis
  IC6  gwf_443.ic  ic
  NPF6  gwf_443.npf  npf
  CHD6  gwf_443.chd  chd_0
  WEL6  gwf_443.wel  wel_0
  OC6  gwf_443.oc  oc
END packages

