# File generated by Flopy version 3.9.5 on 01/22/2026 at 15:32:18.
BEGIN options
END options

BEGIN griddata
  icelltype
    CONSTANT  0
  k
    INTERNAL  FACTOR  1.0
         0.93887524       0.84517104       0.65947428       0.51097642       0.43629110       0.40868289       0.38681144       0.34964385       0.31439276       0.31127683       0.35607281       0.43176301       0.46449733       0.39114993       0.27164470       0.19340825       0.17763007       0.22514353       0.34098435       0.48710198       0.57033500       0.57790484       0.60418686       0.73454572       0.97784692       1.17027955       1.07417550       0.78342162       0.56947960       0.52982412       0.68075325       1.02717725       1.37959334       1.37658438       1.06901659       0.80929879       0.74736330       0.89503162       1.23168668       1.63085501       1.92373202       2.19658643       2.86005958       4.68458790       9.05858938      16.89193217      24.26003134      23.69234102      16.19621851       9.00829585       4.94327147       3.13709721       2.49112844       2.43789341       2.67408487       2.87962989       2.73571154       2.24048490       1.70663889       1.37357628       1.28171334       1.37613715       1.53529585       1.57983676
END griddata

