# File generated by Flopy version 3.9.5 on 01/22/2026 at 15:31:49.
BEGIN options
  HEAD  FILEOUT  head_50.hds
END options

BEGIN period  1
  SAVE  HEAD  ALL
END period  1

