# File generated by Flopy version 3.9.5 on 01/22/2026 at 15:32:15.
BEGIN options
END options

BEGIN griddata
  icelltype
    CONSTANT  0
  k
    INTERNAL  FACTOR  1.0
         0.61599687       0.62641532       0.73480622       1.03933309       1.70775765       2.78291980       3.65226352       3.41916758       2.41183074       1.55041034       1.09002483       0.87773280       0.73476693       0.56533259       0.39394690       0.28210324       0.24576917       0.27913116       0.37733566       0.50826231       0.60258440       0.63693186       0.66684151       0.74280385       0.83705074       0.83100368       0.65952520       0.44095484       0.30016463       0.25340558       0.28325656       0.37868091       0.50823665       0.61334628       0.67905985       0.75881638       0.90523753       1.09858679       1.21674888       1.15972991       1.01336552       0.94186460       1.04488979       1.35743840       1.77765617       1.97261225       1.72505566       1.28145664       0.95069861       0.80783883       0.81539362       0.92226007       1.06827044       1.18982406       1.24706187       1.22936959       1.14322614       1.01577552       0.89596179       0.83114457       0.84518959       0.93041961       1.03639981       1.08122881
END griddata

