# File generated by Flopy version 3.9.5 on 01/22/2026 at 15:32:20.
BEGIN options
END options

BEGIN dimensions
  MAXBOUND  1
END dimensions

BEGIN period  1
  1 1 20 -1.00000000E-01
END period  1

