# File generated by Flopy version 3.9.5 on 01/22/2026 at 15:32:23.
BEGIN options
END options

BEGIN griddata
  icelltype
    CONSTANT  0
  k
    INTERNAL  FACTOR  1.0
         1.70587132       1.70969906       1.58586642       1.38757127       1.19844716       1.09949428       1.16569303       1.51245405       2.36995458       4.04867594       6.42873564       8.25311719       8.22790519       6.91869064       5.68791292       5.08519008       4.88081191       4.46515196       3.43736500       2.18689167       1.29838263       0.86367404       0.72042896       0.72563090       0.75877303       0.71699255       0.60328789       0.50769132       0.49475264       0.59110559       0.80821373       1.12192819       1.49528496       2.02132345       3.05645494       5.26388076       9.11992909      13.02527546      13.57482386      11.03109912       8.72962598       8.35065906      10.06461087      12.86382816      13.42957830       9.79417744       5.30184958       2.67231300       1.57374820       1.17490015       1.02529455       0.91367864       0.78546345       0.69598667       0.71584644       0.90344804       1.30689496       1.86243903       2.28634409       2.32279928       2.06449732       1.76252140       1.55327062       1.45742295
END griddata

