# File generated by Flopy version 3.9.5 on 01/22/2026 at 15:32:24.
BEGIN options
END options

BEGIN griddata
  icelltype
    CONSTANT  0
  k
    INTERNAL  FACTOR  1.0
         0.43836728       0.39627832       0.33369384       0.26634314       0.21282627       0.18494708       0.18639143       0.21653051       0.26654220       0.31220817       0.33062063       0.33089406       0.34664024       0.40953180       0.53843744       0.72415462       0.92215188       1.10799362       1.33844815       1.71764956       2.28186007       2.82757869       2.96060750       2.61800360       2.18950284       1.99568843       2.08820802       2.29822632       2.26820484       1.81961211       1.25024036       0.87443940       0.73607116       0.77927645       0.94259646       1.12666281       1.22972569       1.26157957       1.31481486       1.43496283       1.54887993       1.50926879       1.28900591       1.04333848       0.91468827       0.93932726       1.07311195       1.16854361       1.04599486       0.74219877       0.45996167       0.29239120       0.21672328       0.19624840       0.21401797       0.27372722       0.40306401       0.66022565       1.10953435       1.70270357       2.17423949       2.28933860       2.15137067       2.00079620
END griddata

