# File generated by Flopy version 3.9.5 on 01/22/2026 at 15:32:23.
BEGIN options
END options

BEGIN griddata
  icelltype
    CONSTANT  0
  k
    INTERNAL  FACTOR  1.0
         1.36979287       1.38028687       1.40230973       1.57015556       2.01699370       2.75671469       3.40084303       3.26925853       2.39296993       1.51202333       1.00703797       0.82795133       0.87625486       1.11902418       1.55447522       2.16717698       2.90319669       3.61924087       4.02644941       3.84840636       3.16754514       2.38481377       1.79559291       1.43383023       1.19976094       0.98405480       0.74623514       0.52777292       0.37780915       0.30337112       0.28893293       0.31939748       0.38064086       0.45455936       0.52340284       0.57491557       0.59618148       0.57244215       0.50759724       0.43723579       0.40699604       0.45716755       0.64191532       1.03382669       1.59995771       2.00248104       1.89339378       1.45535911       1.07384699       0.89318524       0.90046863       1.06242523       1.32828427       1.59675929       1.75578302       1.77046112       1.69060398       1.58391225       1.49251955       1.43201363       1.40185369       1.39112785       1.38234644       1.35928503
END griddata

