# File generated by Flopy version 3.9.5 on 01/22/2026 at 15:32:28.
BEGIN options
END options

BEGIN griddata
  icelltype
    CONSTANT  0
  k
    INTERNAL  FACTOR  1.0
         0.89942211       0.74776471       0.48258044       0.31096797       0.25330867       0.27924017       0.37090834       0.49319675       0.58622992       0.63137267       0.66788080       0.72617485       0.78254739       0.77677278       0.69128943       0.58219841       0.50567536       0.46846798       0.43920003       0.38365146       0.30806964       0.25236589       0.24874363       0.32664597       0.54329084       0.95617723       1.47623745       1.85913683       2.04482025       2.22213518       2.52962182       2.84836755       2.82790664       2.33082658       1.69433646       1.25236846       1.05379379       1.00369737       0.96321775       0.81968209       0.60151319       0.42402580       0.34332671       0.36515309       0.51351444       0.84623422       1.37077267       1.89629308       2.13075856       2.02854391       1.80279778       1.65255441       1.65318158       1.77955423       1.90082162       1.80998634       1.43587331       0.97448196       0.64009873       0.47630990       0.44217332       0.49851637       0.59853050       0.66283077
END griddata

