# File generated by Flopy version 3.9.5 on 01/22/2026 at 15:32:24.
BEGIN options
END options

BEGIN griddata
  icelltype
    CONSTANT  0
  k
    INTERNAL  FACTOR  1.0
         2.01588391       2.09822848       2.07761726       1.88892565       1.56062898       1.22282667       0.98828649       0.89250543       0.92900582       1.08089878       1.31386775       1.56225379       1.74474698       1.79675143       1.68570877       1.42192531       1.07279373       0.73750302       0.48477709       0.32594610       0.23995740       0.20398033       0.20608922       0.24653129       0.33339818       0.46592945       0.60177541       0.65784518       0.59826013       0.48423691       0.39210636       0.35139581       0.36090544       0.41156654       0.49327978       0.60106956       0.74044280       0.91166098       1.06939632       1.11654031       1.01205333       0.85757395       0.79583723       0.93602399       1.42212017       2.41079311       3.62760327       4.14321595       3.68530406       3.06766467       2.90871307       3.32055097       4.02620910       4.25264447       3.53026593       2.50390126       1.87000971       1.74587532       2.04450946       2.56397074       2.86097288       2.65825499       2.24838305       2.00459114
END griddata

