# File generated by Flopy version 3.9.5 on 01/22/2026 at 15:32:28.
BEGIN options
END options

BEGIN griddata
  icelltype
    CONSTANT  0
  k
    INTERNAL  FACTOR  1.0
         3.56708984       3.73024512       3.38535112       2.54457398       1.59786210       0.93002192       0.59054115       0.46627284       0.46868857       0.55162515       0.67462038       0.79545785       0.89901315       0.99538924       1.07262343       1.07629345       0.97478655       0.83156427       0.75322435       0.81894532       1.09546001       1.60395408       2.10502555       2.11593809       1.60918879       1.06310688       0.74305650       0.63110223       0.66378271       0.80248114       1.01639208       1.27838287       1.57638285       1.88757265       2.11984613       2.12889275       1.87444307       1.50205645       1.18956409       1.01025597       0.95456404       0.98436174       1.05188713       1.10826982       1.12177949       1.09167713       1.04387732       1.01705785       1.05088017       1.17651718       1.39447011       1.62501904       1.69958604       1.52350233       1.22533935       1.00039967       0.93608079       1.03086102       1.20841000       1.28091978       1.10659318       0.81421862       0.60767201       0.55487667
END griddata

