# File generated by Flopy version 3.9.5 on 01/22/2026 at 15:32:27.
BEGIN options
END options

BEGIN griddata
  icelltype
    CONSTANT  0
  k
    INTERNAL  FACTOR  1.0
         5.03008604       5.18869176       4.47470698       3.41104089       2.49723752       1.90472507       1.59219601       1.46490067       1.43216941       1.41643137       1.36748121       1.27585586       1.15851171       1.03047572       0.89521902       0.75659621       0.62962881       0.53439219       0.48364811       0.47961126       0.51640802       0.57983428       0.64825726       0.70279370       0.73828668       0.75853971       0.76138680       0.73426479       0.66852058       0.57562369       0.48122702       0.40471484       0.35008632       0.31157949       0.28290261       0.26316341       0.25718184       0.27230403       0.31568183       0.39176556       0.49852162       0.62694648       0.76780338       0.91379334       1.04421056       1.11156598       1.07413907       0.95809273       0.85056153       0.83188477       0.95164164       1.22850807       1.58163300       1.77076252       1.62657495       1.30610010       1.05953444       0.98991361       1.10495904       1.37654068       1.70956714       1.95325661       2.02709176       1.96759291
END griddata

