# File generated by Flopy version 3.9.5 on 01/22/2026 at 15:32:28.
BEGIN options
END options

BEGIN griddata
  icelltype
    CONSTANT  0
  k
    INTERNAL  FACTOR  1.0
         0.57494987       0.53380341       0.49029787       0.49715888       0.59583366       0.80418351       1.05534199       1.16121900       1.01626201       0.75287443       0.52839368       0.37969957       0.28296919       0.21700551       0.17760952       0.17000579       0.20599633       0.30815709       0.48564565       0.64981600       0.64451479       0.49344948       0.35439266       0.29796362       0.32662953       0.44062587       0.62558246       0.81995596       0.96906488       1.10550057       1.31053708       1.62137228       1.95902173       2.15455113       2.14628067       2.07432329       2.11136437       2.30922249       2.54163258       2.54417151       2.19440404       1.69876335       1.31637031       1.12699883       1.08757590       1.10905520       1.09065134       0.98881845       0.85507380       0.76639144       0.76132026       0.83918596       0.96281462       1.05870384       1.06640772       1.00262459       0.94001286       0.94245004       1.04498385       1.26014094       1.56695171       1.88709253       2.09524643       2.09018177
END griddata

