# File generated by Flopy version 3.9.5 on 01/22/2026 at 15:32:27.
BEGIN options
END options

BEGIN griddata
  icelltype
    CONSTANT  0
  k
    INTERNAL  FACTOR  1.0
         4.31783561       4.64588670       4.60283503       4.26433957       3.79508687       3.35119194       3.02018139       2.80789299       2.64313765       2.39971356       1.98143105       1.44020464       0.94695196       0.61781024       0.45214490       0.40709735       0.45651455       0.59213338       0.78881684       0.97310744       1.05859744       1.02008203       0.89749873       0.74617057       0.61087718       0.52453904       0.51224278       0.60398843       0.84769097       1.26997590       1.73008334       1.89753516       1.66473166       1.30796252       1.07521657       1.01476723       1.06946062       1.11782974       1.02910761       0.80417423       0.56638302       0.39944673       0.30618670       0.26225861       0.24923976       0.26123204       0.30326298       0.38563378       0.50914470       0.64186445       0.72819061       0.75736099       0.79380242       0.92899202       1.24434356       1.75336517       2.26573043       2.46312366       2.32736735       2.16568292       2.22574244       2.54906174       2.92710025       2.94872026
END griddata

