# File generated by Flopy version 3.9.5 on 01/22/2026 at 15:32:24.
BEGIN options
END options

BEGIN griddata
  icelltype
    CONSTANT  0
  k
    INTERNAL  FACTOR  1.0
         1.56402470       1.58140532       1.51005537       1.35281951       1.16744071       1.04273697       1.05530928       1.27767684       1.80089010       2.65060180       3.53835935       3.85864289       3.35863782       2.46849935       1.68642401       1.17039705       0.87120929       0.70903210       0.62981839       0.60516877       0.62271906       0.67910949       0.77531698       0.91013938       1.06633343       1.19285825       1.21416052       1.09718179       0.90701808       0.75299922       0.71078515       0.83468329       1.21390420       1.95622995       2.95873129       3.67905568       3.65446736       3.14726793       2.68812196       2.52840211       2.67662422       3.01104659       3.29152912       3.26373695       2.87056464       2.28258001       1.71103963       1.27232991       0.99061187       0.84770450       0.81801516       0.87722294       0.98982400       1.09686412       1.14038544       1.11253530       1.05554284       1.01043480       0.98326452       0.95101243       0.89228098       0.81613422       0.75674199       0.74487824
END griddata

