# File generated by Flopy version 3.9.5 on 01/22/2026 at 15:32:16.
BEGIN options
END options

BEGIN griddata
  icelltype
    CONSTANT  0
  k
    INTERNAL  FACTOR  1.0
         1.43626889       1.42929416       1.30847636       1.08037107       0.82607901       0.64107265       0.56640689       0.60499981       0.74630742       0.93503095       1.04774231       1.00385556       0.86796278       0.74773551       0.68921250       0.68884915       0.73541351       0.84257256       1.07148518       1.53699932       2.33964419       3.26702916       3.56709327       2.84224134       1.78900302       1.07222907       0.73289229       0.61305151       0.59235047       0.58997358       0.56305388       0.52023348       0.49175473       0.48829092       0.49034958       0.46638782       0.41211487       0.36127597       0.35101028       0.40312432       0.52150560       0.66015884       0.71407262       0.64076530       0.52669001       0.46131916       0.46865992       0.52446024       0.55355576       0.47570319       0.32304378       0.19475661       0.12661538       0.10391237       0.11164407       0.14362848       0.19084865       0.23240021       0.24934405       0.24440532       0.23423230       0.23155977       0.24082617       0.26239915
END griddata

