# File generated by Flopy version 3.9.5 on 01/22/2026 at 15:32:28.
BEGIN options
END options

BEGIN griddata
  icelltype
    CONSTANT  0
  k
    INTERNAL  FACTOR  1.0
         1.57184688       1.55469896       1.38028381       1.08586803       0.78495553       0.57715054       0.48791088       0.50547539       0.61293418       0.76467337       0.87020167       0.88143332       0.86361108       0.91848775       1.10794723       1.40825141       1.64101543       1.59677775       1.34255334       1.12926956       1.10890988       1.33259714       1.77500737       2.19033474       2.17911782       1.73055351       1.23477426       0.93601150       0.85245633       0.96162679       1.28034074       1.85158537       2.67087343       3.54793759       4.03276368       3.73484538       2.84178172       1.92825890       1.32432872       1.02090241       0.90060470       0.84944862       0.78175892       0.68085382       0.59927539       0.59697686       0.71492467       0.96552031       1.24577379       1.31168035       1.09274328       0.81944535       0.67703733       0.69923279       0.85800934       1.02323837       0.96183599       0.66916200       0.39535081       0.25432119       0.21556673       0.24281042       0.30870190       0.36283951
END griddata

