# File generated by Flopy version 3.9.5 on 01/22/2026 at 15:32:22.
BEGIN options
  SAVE_FLOWS
END options

BEGIN packages
  DIS6  gwf_482.dis  dis
  IC6  gwf_482.ic  ic
  NPF6  gwf_482.npf  npf
  CHD6  gwf_482.chd  chd_0
  WEL6  gwf_482.wel  wel_0
  OC6  gwf_482.oc  oc
END packages

