# File generated by Flopy version 3.9.5 on 01/22/2026 at 15:32:22.
BEGIN options
END options

BEGIN griddata
  icelltype
    CONSTANT  0
  k
    INTERNAL  FACTOR  1.0
         3.17290127       2.92328663       2.02915804       1.26047879       0.83513970       0.64023751       0.55307762       0.50176005       0.45945642       0.43027935       0.42451835       0.44163191       0.46949947       0.49801658       0.53702389       0.61650624       0.76460924       0.96201115       1.08986796       1.01488914       0.79130065       0.59116339       0.50162424       0.53293841       0.69089832       0.98128138       1.38205011       1.86888865       2.47435601       3.23643047       4.01121599       4.39796613       4.12424543       3.42625111       2.70587973       2.10412664       1.55601360       1.03231072       0.62118404       0.38617881       0.30102732       0.33299070       0.49634100       0.80684444       1.12962522       1.22101203       1.08732603       0.92632015       0.82525256       0.73582351       0.58503715       0.39444930       0.24936443       0.18111664       0.17732509       0.23291175       0.34868099       0.48996058       0.59263828       0.65321167       0.73473581       0.88329047       1.06148777       1.13967828
END griddata

