# File generated by Flopy version 3.9.5 on 01/22/2026 at 15:32:23.
BEGIN options
END options

BEGIN griddata
  icelltype
    CONSTANT  0
  k
    INTERNAL  FACTOR  1.0
         0.71065648       0.71394339       0.75353433       0.80802217       0.85864203       0.90471011       0.95671389       1.00777873       1.01469959       0.93035302       0.77540717       0.63729407       0.59567714       0.71661812       1.12720545       2.04449877       3.45600085       4.51448189       4.28369370       3.21952455       2.27240546       1.75046655       1.55891252       1.54914217       1.59953002       1.64077314       1.67601106       1.74369904       1.85070287       1.93680178       1.90938691       1.74066153       1.50413978       1.28910704       1.12186183       0.96966422       0.79198147       0.59354786       0.42079841       0.30806712       0.25717418       0.25847033       0.30734843       0.40299959       0.53931808       0.70315032       0.88422608       1.07823973       1.27268309       1.43656890       1.53828528       1.57439788       1.56381062       1.50967950       1.38428389       1.17285812       0.92801432       0.74190497       0.68113736       0.79877503       1.19919298       2.01198965       3.01618034       3.31634780
END griddata

