# File generated by Flopy version 3.9.5 on 01/22/2026 at 15:32:17.
BEGIN options
END options

BEGIN griddata
  icelltype
    CONSTANT  0
  k
    INTERNAL  FACTOR  1.0
         0.24095805       0.22532576       0.22950025       0.24882484       0.27774002       0.30839473       0.33095390       0.33635275       0.32057396       0.28736657       0.24637554       0.20781814       0.17838876       0.16096420       0.15669859       0.16726701       0.19615757       0.24807616       0.32432820       0.41349858       0.48757994       0.52048564       0.51506022       0.49982613       0.50210752       0.53137657       0.57612688       0.60965991       0.61180391       0.59083703       0.57456486       0.58348856       0.61540902       0.64509741       0.64369975       0.61171427       0.58273913       0.59208575       0.65111105       0.72983403       0.75254548       0.66470062       0.51399308       0.39017268       0.33412777       0.34707803       0.41845623       0.51196178       0.55262884       0.49571183       0.38925386       0.30401376       0.26872414       0.28762034       0.36762775       0.52156834       0.74859069       1.00360499       1.19560869       1.24811351       1.16834066       1.03568744       0.93136035       0.89826031
END griddata

