# File generated by Flopy version 3.9.5 on 01/22/2026 at 15:32:25.
BEGIN options
END options

BEGIN griddata
  icelltype
    CONSTANT  0
  k
    INTERNAL  FACTOR  1.0
         0.19679043       0.17287145       0.15306337       0.14108110       0.14365975       0.17319765       0.25611048       0.44397260       0.78771995       1.19908959       1.38081795       1.20547122       0.91605378       0.73933877       0.73196809       0.89444789       1.18664024       1.43250505       1.40397962       1.13121848       0.84519874       0.67936056       0.64535500       0.72840633       0.92049829       1.20941647       1.56369028       1.91761504       2.14864526       2.10798904       1.76994317       1.31553562       0.95869411       0.78302445       0.78701095       0.96612156       1.29472399       1.62400887       1.72059839       1.55579715       1.34268145       1.26554890       1.38934330       1.68621102       1.97302647       1.94705988       1.54930175       1.06838648       0.73727222       0.57892010       0.53880384       0.55946733       0.57857384       0.54385233       0.45714265       0.36482027       0.30281106       0.27910476       0.28780597       0.31826135       0.35685953       0.39195494       0.42080479       0.44829471
END griddata

