# File generated by Flopy version 3.9.5 on 01/22/2026 at 15:32:29.
BEGIN options
END options

BEGIN dimensions
  MAXBOUND  2
END dimensions

BEGIN period  1
  1 1 1 0.00000000E+00
  1 1 64 0.00000000E+00
END period  1

