# File generated by Flopy version 3.9.5 on 01/22/2026 at 15:32:27.
BEGIN options
END options

BEGIN griddata
  icelltype
    CONSTANT  0
  k
    INTERNAL  FACTOR  1.0
         0.86676168       0.89141488       1.00519009       1.25374218       1.65250064       2.05968235       2.15384829       1.81778303       1.35188517       1.04790324       0.97017319       1.08726759       1.32439052       1.52864311       1.57127704       1.50629018       1.48090380       1.56882440       1.71629310       1.75976555       1.57827161       1.25350030       0.95170005       0.74629272       0.62332020       0.54942466       0.50713669       0.49842482       0.52983061       0.58935331       0.62440990       0.56913356       0.43527816       0.30695936       0.23606673       0.22670418       0.27741470       0.39589467       0.58923014       0.87038596       1.30224019       2.00736005       2.98927902       3.73177464       3.46878190       2.45811618       1.61266088       1.27050253       1.40435578       2.05782906       3.18066754       4.08001313       3.96476224       3.22418214       2.66060638       2.54416650       2.76797311       2.98003978       2.73828063       2.03784680       1.31679218       0.85076397       0.63063307       0.58308849
END griddata

