# File generated by Flopy version 3.9.5 on 01/22/2026 at 15:32:26.
BEGIN options
END options

BEGIN griddata
  strt
    CONSTANT       0.00000000
END griddata

