# File generated by Flopy version 3.9.5 on 01/22/2026 at 15:32:16.
BEGIN options
END options

BEGIN griddata
  icelltype
    CONSTANT  0
  k
    INTERNAL  FACTOR  1.0
         2.65223742       2.63264860       2.19486492       1.56691247       1.04204162       0.74882191       0.67358161       0.79622555       1.11526818       1.49990092       1.60208911       1.30038670       0.91532303       0.69483249       0.66437673       0.79348302       1.01412793       1.15488698       1.07775580       0.87666027       0.71897931       0.66769379       0.70877289       0.78922391       0.83247045       0.79861957       0.72238389       0.65570495       0.61055484       0.55937712       0.47199052       0.35879788       0.26155911       0.20704134       0.19953321       0.24225382       0.34619402       0.51049224       0.68466195       0.78165580       0.76306626       0.66713067       0.54793232       0.43442704       0.33663951       0.25975593       0.20737776       0.17993481       0.17532185       0.18984954       0.21548662       0.23621493       0.23501333       0.21094901       0.18070959       0.16131144       0.16076376       0.18072262       0.21750578       0.25880002       0.28776186       0.29895045       0.30478123       0.32308923
END griddata

