# File generated by Flopy version 3.9.5 on 01/22/2026 at 15:32:17.
BEGIN options
END options

BEGIN griddata
  icelltype
    CONSTANT  0
  k
    INTERNAL  FACTOR  1.0
         0.49114075       0.47294852       0.46174869       0.43657666       0.39581512       0.36458126       0.37411973       0.45057794       0.61270840       0.84371633       1.06337487       1.19819446       1.27894619       1.39633131       1.59731530       1.82660383       1.94428483       1.86896024       1.68012376       1.50632498       1.39586761       1.31433613       1.20870881       1.07462409       0.96107625       0.91643679       0.95520489       1.05799767       1.18640996       1.32524939       1.52306756       1.87275506       2.42194916       3.00240623       3.18121168       2.74692365       2.06553057       1.55348663       1.30445024       1.22950249       1.19390520       1.09425006       0.94134659       0.82211121       0.79094554       0.83708629       0.88905672       0.85971834       0.75602404       0.67894286       0.71917979       0.93907929       1.35339627       1.77718139       1.87180775       1.63373003       1.38193806       1.30705376       1.39526958       1.48656439       1.38135856       1.10329798       0.86374071       0.78696268
END griddata

