# File generated by Flopy version 3.9.5 on 01/22/2026 at 15:32:28.
BEGIN options
END options

BEGIN griddata
  icelltype
    CONSTANT  0
  k
    INTERNAL  FACTOR  1.0
         5.32610921       5.44505112       4.65322470       3.71985146       3.11296529       2.85207357       2.76264404       2.64014569       2.38796216       2.07766540       1.83708600       1.73141022       1.75097007       1.83800149       1.91485349       1.92675891       1.87334088       1.79261497       1.72216333       1.67812708       1.65436233       1.62857661       1.57411714       1.48088813       1.37184404       1.29229041       1.27735350       1.31922912       1.34066070       1.22043234       0.93191046       0.61164121       0.39018790       0.28291483       0.25519939       0.27653362       0.31686350       0.34215810       0.34515864       0.35963357       0.43328116       0.60806808       0.86952933       1.04968433       0.97201572       0.75059085       0.59818119       0.59504466       0.76292960       1.10135497       1.49261150       1.74836622       1.88427886       2.10420080       2.52500374       2.93907499       2.84290962       2.17834545       1.52953013       1.27662938       1.51148895       2.37489613       3.69823052       4.14719059
END griddata

