# File generated by Flopy version 3.9.5 on 01/22/2026 at 15:32:19.
BEGIN options
END options

BEGIN griddata
  icelltype
    CONSTANT  0
  k
    INTERNAL  FACTOR  1.0
         2.71413493       2.73889447       2.44195610       2.02202152       1.65102743       1.38855287       1.22399851       1.13148335       1.09708549       1.12500578       1.23247498       1.43817643       1.74088363       2.08775591       2.36479708       2.46068203       2.36561120       2.17910667       2.01943868       1.95114651       1.97212678       2.02342915       2.01736240       1.90505045       1.73169793       1.60126514       1.60293196       1.78382700       2.13718607       2.56197058       2.88093075       3.01375885       3.09960810       3.38234326       4.05076963       5.10049694       6.14342664       6.55901571       6.22667585       5.71464674       5.59630668       6.01660825       6.55323083       6.24572684       4.64007905       2.68105416       1.35812388       0.71668948       0.44889114       0.34571334       0.31401816       0.31791376       0.35087681       0.42662515       0.57210343       0.80898832       1.10902152       1.36612738       1.48178907       1.47635891       1.44332067       1.43958845       1.45302021       1.43744325
END griddata

