# File generated by Flopy version 3.9.5 on 01/22/2026 at 15:32:28.
BEGIN options
END options

BEGIN griddata
  icelltype
    CONSTANT  0
  k
    INTERNAL  FACTOR  1.0
         0.44374516       0.40438632       0.35278418       0.30714991       0.28329090       0.29164353       0.33974149       0.42940812       0.54213222       0.63207831       0.66229511       0.64781315       0.63435030       0.64975750       0.68264769       0.68733393       0.62629822       0.52154238       0.43138149       0.39311717       0.41508551       0.48802800       0.57816457       0.63288151       0.63067033       0.60413620       0.59332722       0.60325435       0.59880545       0.53797158       0.42965570       0.32868133       0.27377343       0.27274927       0.32128780       0.39815196       0.44694582       0.41516583       0.32379894       0.23240558       0.16895063       0.12961618       0.10320271       0.08287918       0.06770333       0.05931948       0.05902657       0.06731314       0.08308329       0.10145460       0.11510636       0.12163675       0.12641797       0.13634293       0.15332811       0.17147334       0.18047013       0.17738788       0.17266490       0.18172001       0.21736334       0.28566170       0.37173336       0.43026696
END griddata

