# File generated by Flopy version 3.9.5 on 01/22/2026 at 15:32:22.
BEGIN options
END options

BEGIN griddata
  icelltype
    CONSTANT  0
  k
    INTERNAL  FACTOR  1.0
         0.20492271       0.17366577       0.14111220       0.11960953       0.11196780       0.11322027       0.11417673       0.10826564       0.09939626       0.09872080       0.11868283       0.17670395       0.29687344       0.48531049       0.69619275       0.87769714       1.05509954       1.30732996       1.67488498       2.06395683       2.25459302       2.14768546       1.91375277       1.78008020       1.86116112       2.17281038       2.62808885       3.00011403       3.02093268       2.60664601       1.93231727       1.27278687       0.80664830       0.56112060       0.49704126       0.61169128       0.99478810       1.75718667       2.61120406       2.74306211       2.06070628       1.33668581       0.95525310       0.86999868       0.97870793       1.15955775       1.24321290       1.17710662       1.10737777       1.21794661       1.68703862       2.71432261       4.20369595       5.28748554       5.16652676       4.30483626       3.53536916       3.10892440       2.83405925       2.41749119       1.80266847       1.22895920       0.88696899       0.78996008
END griddata

